Test_Network/condensed/network_18/Feeder_4/Loads - Copy.txt
New Load.LOAD1 Phases=1 Bus1=83.1 kV=0.23 kW=1 PF=0.95
New Load.LOAD2 Phases=1 Bus1=118.1 kV=0.23 kW=1 PF=0.95
New Load.LOAD3 Phases=1 Bus1=179.3 kV=0.23 kW=1 PF=0.95
New Load.LOAD4 Phases=1 Bus1=180.2 kV=0.23 kW=1 PF=0.95
New Load.LOAD5 Phases=1 Bus1=215.3 kV=0.23 kW=1 PF=0.95
New Load.LOAD6 Phases=1 Bus1=278.3 kV=0.23 kW=1 PF=0.95
New Load.LOAD7 Phases=1 Bus1=309.1 kV=0.23 kW=1 PF=0.95
New Load.LOAD8 Phases=1 Bus1=353.1 kV=0.23 kW=1 PF=0.95
New Load.LOAD9 Phases=1 Bus1=425.3 kV=0.23 kW=1 PF=0.95
New Load.LOAD10 Phases=1 Bus1=467.2 kV=0.23 kW=1 PF=0.95
New Load.LOAD11 Phases=1 Bus1=495.1 kV=0.23 kW=1 PF=0.95
New Load.LOAD12 Phases=1 Bus1=497.1 kV=0.23 kW=1 PF=0.95
New Load.LOAD13 Phases=1 Bus1=547.2 kV=0.23 kW=1 PF=0.95
New Load.LOAD14 Phases=1 Bus1=591.3 kV=0.23 kW=1 PF=0.95
New Load.LOAD15 Phases=1 Bus1=617.1 kV=0.23 kW=1 PF=0.95
New Load.LOAD16 Phases=1 Bus1=624.2 kV=0.23 kW=1 PF=0.95
New Load.LOAD17 Phases=1 Bus1=721.2 kV=0.23 kW=1 PF=0.95
New Load.LOAD18 Phases=1 Bus1=731.3 kV=0.23 kW=1 PF=0.95
New Load.LOAD19 Phases=1 Bus1=749.1 kV=0.23 kW=1 PF=0.95
New Load.LOAD20 Phases=1 Bus1=845.2 kV=0.23 kW=1 PF=0.95
New Load.LOAD21 Phases=1 Bus1=894.3 kV=0.23 kW=1 PF=0.95
New Load.LOAD22 Phases=1 Bus1=912.1 kV=0.23 kW=1 PF=0.95
New Load.LOAD23 Phases=1 Bus1=936.3 kV=0.23 kW=1 PF=0.95
New Load.LOAD24 Phases=1 Bus1=942.2 kV=0.23 kW=1 PF=0.95
New Load.LOAD25 Phases=1 Bus1=979.3 kV=0.23 kW=1 PF=0.95
New Load.LOAD26 Phases=1 Bus1=994.1 kV=0.23 kW=1 PF=0.95
New Load.LOAD27 Phases=1 Bus1=1016.2 kV=0.23 kW=1 PF=0.95
New Load.LOAD28 Phases=1 Bus1=1075.3 kV=0.23 kW=1 PF=0.95
New Load.LOAD29 Phases=1 Bus1=1083.1 kV=0.23 kW=1 PF=0.95
New Load.LOAD30 Phases=1 Bus1=1091.3 kV=0.23 kW=1 PF=0.95
New Load.LOAD31 Phases=1 Bus1=1112.2 kV=0.23 kW=1 PF=0.95
New Load.LOAD32 Phases=1 Bus1=1116.2 kV=0.23 kW=1 PF=0.95
New Load.LOAD33 Phases=1 Bus1=1157.3 kV=0.23 kW=1 PF=0.95
New Load.LOAD34 Phases=1 Bus1=1162.2 kV=0.23 kW=1 PF=0.95
